<?xml version="1.0" encoding="utf-8"?>
<!DOCTYPE population SYSTEM "http://www.matsim.org/files/dtd/population_v5.dtd">

<population>

	<!-- ====================================================================== -->

	<person id="passenger_0" employed="no">
		<plan selected="yes">
			<act type="h" link="114" end_time="00:00:00"/>
			<leg mode="drt_autonomousForCarSharing"/>
			<act type="w" link="349"/>
		</plan>
	</person>
	<!-- ====================================================================== -->

</population>
